OPT_V10/Two_days_MYC3_SOS/powerflow_results_t23.txt
Pandapower Network Debug Info
==================================================

BUS:
       vm_pu  va_degree      p_mw    q_mvar
0   0.993100   0.120523  0.001143  0.000840
1   0.988641   0.192353  0.001566  0.001768
2   0.984519   0.274019  0.002045  0.003128
3   0.989600   0.214914  0.002048  0.004022
4   0.999881   0.000308  0.010728  0.009266
5   0.999866   0.000289  0.011976  0.008780
6   0.999855   0.000278  0.014348  0.010808
7   0.999927   0.000309  0.000000  0.000000
8   0.999927   0.000315  0.000000  0.000000
9   1.000000   0.000000 -0.043997 -0.043708
10  1.000000   0.000006  0.000000  0.000000
--------------------------------------------------

LINE:
   p_from_mw  q_from_mvar   p_to_mw  q_to_mvar         pl_mw       ql_mvar  i_from_ka   i_to_ka      i_ka  vm_from_pu  va_from_degree  vm_to_pu  va_to_degree  loading_percent
0   0.043987     0.039708 -0.043984  -0.039705  3.434803e-06  2.678173e-06   0.002281  0.002281  0.002281    1.000000        0.000006  0.999927      0.000309         0.991681
1   0.037054     0.028856 -0.037052  -0.028854  1.705841e-06  1.330072e-06   0.001808  0.001808  0.001808    0.999927        0.000309  0.999881      0.000308         0.785996
2   0.006920     0.009850 -0.006852  -0.009797  6.778292e-05  5.285146e-05   0.017376  0.017376  0.017376    0.999927        0.000315  0.993100      0.120523         7.554721
3  -0.026324    -0.019588  0.026325   0.019589  3.724380e-07  2.903960e-07   0.001263  0.001263  0.001263    0.999866        0.000289  0.999881      0.000308         0.549188
4  -0.014348    -0.010808  0.014348   0.010808  1.578548e-07  1.230820e-07   0.000692  0.000692  0.000692    0.999855        0.000278  0.999866      0.000289         0.300653
5  -0.003624    -0.004906  0.003647   0.004924  2.252117e-05  1.756013e-05   0.008905  0.008905  0.008905    0.988641        0.192353  0.993100      0.120523         3.871897
6  -0.002048    -0.004022  0.002062   0.004033  1.388975e-05  1.083007e-05   0.006583  0.006583  0.006583    0.989600        0.214914  0.993100      0.120523         2.862287
7  -0.002045    -0.003128  0.002058   0.003138  1.303677e-05  1.016498e-05   0.005479  0.005479  0.005479    0.984519        0.274019  0.988641      0.192353         2.382373
--------------------------------------------------

TRAFO:
    p_hv_mw  q_hv_mvar   p_lv_mw  q_lv_mvar    pl_mw  ql_mvar   i_hv_ka   i_lv_ka  vm_hv_pu  va_hv_degree  vm_lv_pu  va_lv_degree  loading_percent
0  0.006930   0.010850 -0.006920  -0.009850  0.00001    0.001  0.000496  0.017376  0.999927      0.000309  0.999927      0.000315         0.128747
1  0.043997   0.043708 -0.043987  -0.039708  0.00001    0.004  0.000512  0.002281  1.000000      0.000000  1.000000      0.000006         0.155043
--------------------------------------------------
